data_image0
_cell_length_a       4.01174
_cell_length_b       4.01174
_cell_length_c       7.89636
_cell_angle_alpha    90
_cell_angle_beta     90
_cell_angle_gamma    89.8634

_symmetry_space_group_name_H-M    "P 1"
_symmetry_int_tables_number       1

loop_
  _symmetry_equiv_pos_as_xyz
  'x, y, z'

loop_
  _atom_site_label
  _atom_site_occupancy
  _atom_site_fract_x
  _atom_site_fract_y
  _atom_site_fract_z
  _atom_site_thermal_displace_type
  _atom_site_B_iso_or_equiv
  _atom_site_type_symbol
  Pb1      1.0000 0.02127  0.02127  0.00000  Biso   1.000  Pb
  Ti1      1.0000 0.50726  0.50726  0.23690  Biso   1.000  Ti
  O1       1.0000 0.50323  0.50323  0.00000  Biso   1.000  O
  O2       1.0000 0.00678  0.50275  0.24249  Biso   1.000  O
  O3       1.0000 0.50275  0.00678  0.24249  Biso   1.000  O
  Ti2      1.0000 0.48713  0.01988  0.50000  Biso   1.000  Ti
  Ti3      1.0000 0.01988  0.48713  0.50000  Biso   1.000  Ti
  O4       1.0000 0.99370  0.99370  0.50000  Biso   1.000  O
  O5       1.0000 0.52182  0.52182  0.50000  Biso   1.000  O
  Ti4      1.0000 0.50726  0.50726  0.76310  Biso   1.000  Ti
  O6       1.0000 0.50275  0.00678  0.75751  Biso   1.000  O
  O7       1.0000 0.00678  0.50275  0.75751  Biso   1.000  O
