data_image0
_chemical_formula_structural       TiO
_chemical_formula_sum              "Ti1 O1"
_cell_length_a       3.0330426140181412
_cell_length_b       3.0330426140181412
_cell_length_c       3.0330426140181412
_cell_angle_alpha    60.00000000000001
_cell_angle_beta     60.00000000000001
_cell_angle_gamma    60.00000000000001

_space_group_name_H-M_alt    "P 1"
_space_group_IT_number       1

loop_
  _space_group_symop_operation_xyz
  'x, y, z'

loop_
  _atom_site_type_symbol
  _atom_site_label
  _atom_site_symmetry_multiplicity
  _atom_site_fract_x
  _atom_site_fract_y
  _atom_site_fract_z
  _atom_site_occupancy
  Ti  Ti1       1.0  0.0  0.0  0.0  1.0000
  O   O1        1.0  0.5000000000000001  0.5000000000000001  0.4999999999999999  1.0000
